# CIF file generated by openbabel 3.1.1, see https://openbabel.org
data_I
_chemical_name_common '3W2Q_ligand2'
_cell_length_a 144.113
_cell_length_b 144.113
_cell_length_c 144.113
_cell_angle_alpha 90
_cell_angle_beta 90
_cell_angle_gamma 90
_space_group_name_H-M_alt 'I 2 3'
_space_group_name_Hall 'I 2 2 3'
loop_
    _symmetry_equiv_pos_as_xyz
    x,y,z
    -x,-y,z
    -x,y,-z
    x,-y,-z
    z,x,y
    z,-x,-y
    -z,-x,y
    -z,x,-y
    y,z,x
    -y,z,-x
    y,-z,-x
    -y,-z,x
    1/2+x,1/2+y,1/2+z
    1/2-x,1/2-y,1/2+z
    1/2-x,1/2+y,1/2-z
    1/2+x,1/2-y,1/2-z
    1/2+z,1/2+x,1/2+y
    1/2+z,1/2-x,1/2-y
    1/2-z,1/2-x,1/2+y
    1/2-z,1/2+x,1/2-y
    1/2+y,1/2+z,1/2+x
    1/2-y,1/2+z,1/2-x
    1/2+y,1/2-z,1/2-x
    1/2-y,1/2-z,1/2+x
loop_
    _atom_site_label
    _atom_site_type_symbol
    _atom_site_fract_x
    _atom_site_fract_y
    _atom_site_fract_z
    _atom_site_occupancy
    C0       C        0.01148    0.16663    0.36746    1.000
    C1       C        0.00998    0.22763    0.35378    1.000
    C2       C        0.00494    0.23003    0.34603    1.000
    C3       C        0.99520    0.17609    0.35102    1.000
    C4       C        0.99777    0.18509    0.34889    1.000
    C5       C        0.01053    0.21837    0.35609    1.000
    C6       C        0.99831    0.14044    0.35117    1.000
    C7       C        0.01031    0.12907    0.36060    1.000
    C8       C        0.01101    0.17163    0.35014    1.000
    C9       C        0.00070    0.22314    0.34096    1.000
    C10      C        0.01675    0.15092    0.36979    1.000
    C11      C        0.01104    0.15704    0.36523    1.000
    C12      C        0.00459    0.14426    0.35734    1.000
    C13      C        0.01066    0.13852    0.36221    1.000
    C14      C        0.00178    0.16916    0.35165    1.000
    C15      C        0.99799    0.13097    0.34964    1.000
    C16      C        0.00471    0.15380    0.35882    1.000
    C17      C        0.00700    0.18735    0.34751    1.000
    C18      C        0.00409    0.12528    0.35438    1.000
    C19      C        0.01377    0.18064    0.34816    1.000
    C20      C        0.00606    0.21193    0.35060    1.000
    C21      C        0.98202    0.12930    0.34489    1.000
    C22      C        0.00973    0.10075    0.35492    1.000
    C23      C        0.94566    0.12911    0.33827    1.000
    C24      C        0.94645    0.12215    0.32383    1.000
    C25      C        0.00668    0.20188    0.35317    1.000
    C26      C        0.97534    0.12261    0.34048    1.000
    C27      C        0.96523    0.12576    0.34137    1.000
    C28      C        0.96027    0.12291    0.33247    1.000
    C29      C        0.01173    0.11103    0.35584    1.000
    N30      N        0.01126    0.17437    0.36985    1.000
    N31      N        0.01676    0.14178    0.36841    1.000
    N32      N        0.00114    0.21411    0.34304    1.000
    N33      N        0.99878    0.16002    0.35404    1.000
    N34      N        0.99142    0.12727    0.34332    1.000
    N35      N        0.95171    0.12795    0.33026    1.000
    O36      O        0.97906    0.13586    0.34943    1.000
    O37      O        0.00969    0.19637    0.34542    1.000
    O38      O        0.00363    0.11580    0.35273    1.000
    Cl39     Cl       0.02538    0.18387    0.34640    1.000
